test/data/three_phase/swing_and_long_ul_to_pq/node.glm
// An infinite source, a line, and a PQ load

/////////////////////////////////////////////
// BEGIN
/////////////////////////////////////////////



clock {
	timezone EST+8EDT;
	timestamp '2000-01-01 0:00:00';
	stoptime '2000-01-01 0:00:01';
}

module powerflow {
    solver_method NR;
};

// object voltdump {
//     filename voltage.csv;
// 	mode RECT;
// }


object node {
    name node1;
    phases "ABCN";
    nominal_voltage 2400;
    bustype SWING;
    // object recorder {
    //     file node1_voltages.csv;
    //     interval 60;
    //     property voltage_A, voltage_B, voltage_C;
    // };
}

object underground_line:48 { 
     name GC-12-47-1_ul_3; 
     phases ABCN; 
     from node1; 
     to load1; 
     length 6000; 
     configuration line_configuration:6; 
} 


object line_configuration:6 { 
     conductor_A underground_line_conductor:2; 
     conductor_B underground_line_conductor:2; 
     conductor_C underground_line_conductor:2; 
     conductor_N underground_line_conductor:2; 
     spacing line_spacing:5; 
} 

object line_spacing:5 { 
     distance_AB 3.0 in; 
     distance_BC 3.0 in; 
     distance_AC 3.0 in; 
     distance_AN 2.0 in; 
     distance_BN 2.0 in; 
     distance_CN 2.0 in; 
} 


object underground_line_conductor:2 { 
     //name 1000 AAC (Conc); 
    //  rating.summer.continuous 488.0; 
     outer_diameter 2.15; 
     conductor_gmr 0.0371 ft; 
     conductor_diameter 1.152; 
     conductor_resistance 0.091872; 
     neutral_gmr 0.0842565914341201 ft; 
     neutral_resistance 5.3856; 
     neutral_diameter 0.1019; 
     neutral_strands 20.0; 
    //  shield_gmr 0.00; 
    //  shield_resistance 0.00; 
} 

object load {
    name load1;
    phases "ABCN";
    constant_power_A +1800000.000+871779.789j;
    constant_power_B +1800000.000+871779.789j;
    constant_power_C +1800000.000+871779.789j;
    nominal_voltage 2400;
    bustype PQ;
    // object recorder {
    //     file load1_voltages.csv;
    //     interval 10000;
    //     property measured_voltage_A, measured_voltage_B, measured_voltage_C;
    // };
}


object voltdump {
     filename result.csv;
     mode RECT;
}
